NCCc1ccc2c(c1)OCC2
     RDKit          3D

 26 27  0  0  0  0  0  0  0  0999 V2000
   12.1380   22.0670   25.1420 N   0  0  0  0  0  0  0  0  0  0  0  0
   11.3520   20.9290   24.5980 C   0  0  0  0  0  0  0  0  0  0  0  0
   10.7260   21.3170   23.2610 C   0  0  0  0  0  0  0  0  0  0  0  0
    9.6740   20.3210   22.8520 C   0  0  0  0  0  0  0  0  0  0  0  0
    8.3070   20.6750   22.8710 C   0  0  0  0  0  0  0  0  0  0  0  0
    7.3210   19.7650   22.4750 C   0  0  0  0  0  0  0  0  0  0  0  0
    7.7200   18.5120   22.0500 C   0  0  0  0  0  0  0  0  0  0  0  0
    9.0590   18.1650   22.0260 C   0  0  0  0  0  0  0  0  0  0  0  0
   10.0500   19.0390   22.4250 C   0  0  0  0  0  0  0  0  0  0  0  0
    9.2920   16.8870   21.5960 O   0  0  0  0  0  0  0  0  0  0  0  0
    8.0130   16.4640   21.0620 C   0  0  0  0  0  0  0  0  0  0  0  0
    6.9070   17.3430   21.6480 C   0  0  0  0  0  0  0  0  0  0  0  0
   12.9110   22.3120   24.5070 H   0  0  0  0  0  0  0  0  0  0  0  0
   11.5610   22.9100   25.2590 H   0  0  0  0  0  0  0  0  0  0  0  0
   12.5550   21.8400   26.0550 H   0  0  0  0  0  0  0  0  0  0  0  0
   12.0164   20.0646   24.4517 H   0  0  0  0  0  0  0  0  0  0  0  0
   10.5531   20.6703   25.3086 H   0  0  0  0  0  0  0  0  0  0  0  0
   10.2641   22.3110   23.3544 H   0  0  0  0  0  0  0  0  0  0  0  0
   11.5145   21.3306   22.4942 H   0  0  0  0  0  0  0  0  0  0  0  0
    8.0130   21.6819   23.2023 H   0  0  0  0  0  0  0  0  0  0  0  0
    6.2561   20.0396   22.5012 H   0  0  0  0  0  0  0  0  0  0  0  0
   11.1078   18.7377   22.4085 H   0  0  0  0  0  0  0  0  0  0  0  0
    8.0206   16.5639   19.9666 H   0  0  0  0  0  0  0  0  0  0  0  0
    7.8303   15.4129   21.3301 H   0  0  0  0  0  0  0  0  0  0  0  0
    6.1498   17.6078   20.8954 H   0  0  0  0  0  0  0  0  0  0  0  0
    6.3160   16.8816   22.4529 H   0  0  0  0  0  0  0  0  0  0  0  0
  1  2  1  0
  2  3  1  0
  3  4  1  0
  4  5  2  0
  5  6  1  0
  6  7  2  0
  7  8  1  0
  8  9  2  0
  8 10  1  0
 10 11  1  0
 11 12  1  0
  9  4  1  0
 12  7  1  0
  1 13  1  0
  1 14  1  0
  1 15  1  0
  2 16  1  0
  2 17  1  0
  3 18  1  0
  3 19  1  0
  5 20  1  0
  6 21  1  0
  9 22  1  0
 11 23  1  0
 11 24  1  0
 12 25  1  0
 12 26  1  0
M  CHG  1   1   1
M  END
>  <Score>  (1) 
-6.624

>  <Idx>  (1) 
0

$$$$
NCCc1ccc2c(c1)OCC2
     RDKit          3D

 26 27  0  0  0  0  0  0  0  0999 V2000
    6.2820   15.2720   23.7640 N   0  0  0  0  0  0  0  0  0  0  0  0
    6.9560   15.3050   22.4400 C   0  0  0  0  0  0  0  0  0  0  0  0
    6.6240   16.6070   21.7160 C   0  0  0  0  0  0  0  0  0  0  0  0
    7.6800   17.6470   21.9720 C   0  0  0  0  0  0  0  0  0  0  0  0
    7.3170   18.9550   22.3640 C   0  0  0  0  0  0  0  0  0  0  0  0
    8.2910   19.9260   22.6230 C   0  0  0  0  0  0  0  0  0  0  0  0
    9.6200   19.5690   22.5010 C   0  0  0  0  0  0  0  0  0  0  0  0
    9.9770   18.2870   22.1220 C   0  0  0  0  0  0  0  0  0  0  0  0
    9.0380   17.3150   21.8460 C   0  0  0  0  0  0  0  0  0  0  0  0
   11.3290   18.0940   22.0310 O   0  0  0  0  0  0  0  0  0  0  0  0
   11.8900   19.2810   22.6450 C   0  0  0  0  0  0  0  0  0  0  0  0
   10.8400   20.3940   22.6410 C   0  0  0  0  0  0  0  0  0  0  0  0
    6.5120   14.4050   24.2690 H   0  0  0  0  0  0  0  0  0  0  0  0
    6.5710   16.0590   24.3600 H   0  0  0  0  0  0  0  0  0  0  0  0
    5.2570   15.3060   23.6700 H   0  0  0  0  0  0  0  0  0  0  0  0
    8.0444   15.2357   22.5837 H   0  0  0  0  0  0  0  0  0  0  0  0
    6.6041   14.4563   21.8351 H   0  0  0  0  0  0  0  0  0  0  0  0
    6.5641   16.4129   20.6349 H   0  0  0  0  0  0  0  0  0  0  0  0
    5.6613   16.9832   22.0924 H   0  0  0  0  0  0  0  0  0  0  0  0
    6.2529   19.2140   22.4672 H   0  0  0  0  0  0  0  0  0  0  0  0
    8.0057   20.9471   22.9161 H   0  0  0  0  0  0  0  0  0  0  0  0
    9.3455   16.3056   21.5352 H   0  0  0  0  0  0  0  0  0  0  0  0
   12.1833   19.0557   23.6810 H   0  0  0  0  0  0  0  0  0  0  0  0
   12.7754   19.6064   22.0791 H   0  0  0  0  0  0  0  0  0  0  0  0
   10.8439   20.9667   23.5801 H   0  0  0  0  0  0  0  0  0  0  0  0
   10.9764   21.1672   21.8705 H   0  0  0  0  0  0  0  0  0  0  0  0
  1  2  1  0
  2  3  1  0
  3  4  1  0
  4  5  2  0
  5  6  1  0
  6  7  2  0
  7  8  1  0
  8  9  2  0
  8 10  1  0
 10 11  1  0
 11 12  1  0
  9  4  1  0
 12  7  1  0
  1 13  1  0
  1 14  1  0
  1 15  1  0
  2 16  1  0
  2 17  1  0
  3 18  1  0
  3 19  1  0
  5 20  1  0
  6 21  1  0
  9 22  1  0
 11 23  1  0
 11 24  1  0
 12 25  1  0
 12 26  1  0
M  CHG  1   1   1
M  END
>  <Score>  (2) 
-6.484

>  <Idx>  (2) 
0

$$$$
NCCc1ccc2c(c1)OCC2
     RDKit          3D

 26 27  0  0  0  0  0  0  0  0999 V2000
    6.5350   23.7320   22.4740 N   0  0  0  0  0  0  0  0  0  0  0  0
    6.6500   22.4120   23.1470 C   0  0  0  0  0  0  0  0  0  0  0  0
    8.1180   22.0100   23.2640 C   0  0  0  0  0  0  0  0  0  0  0  0
    8.3170   20.5770   22.8530 C   0  0  0  0  0  0  0  0  0  0  0  0
    9.5860   19.9680   22.9680 C   0  0  0  0  0  0  0  0  0  0  0  0
    9.7800   18.6300   22.6060 C   0  0  0  0  0  0  0  0  0  0  0  0
    8.6920   17.9130   22.1480 C   0  0  0  0  0  0  0  0  0  0  0  0
    7.4470   18.5050   22.0390 C   0  0  0  0  0  0  0  0  0  0  0  0
    7.2320   19.8260   22.3750 C   0  0  0  0  0  0  0  0  0  0  0  0
    6.4760   17.6700   21.5560 O   0  0  0  0  0  0  0  0  0  0  0  0
    7.0970   16.3610   21.5940 C   0  0  0  0  0  0  0  0  0  0  0  0
    8.6180   16.5260   21.6370 C   0  0  0  0  0  0  0  0  0  0  0  0
    5.5480   23.9740   22.3130 H   0  0  0  0  0  0  0  0  0  0  0  0
    6.9460   24.4870   23.0400 H   0  0  0  0  0  0  0  0  0  0  0  0
    7.0030   23.7340   21.5580 H   0  0  0  0  0  0  0  0  0  0  0  0
    6.2090   22.4765   24.1527 H   0  0  0  0  0  0  0  0  0  0  0  0
    6.1157   21.6565   22.5523 H   0  0  0  0  0  0  0  0  0  0  0  0
    8.7220   22.6586   22.6124 H   0  0  0  0  0  0  0  0  0  0  0  0
    8.4300   22.1211   24.3129 H   0  0  0  0  0  0  0  0  0  0  0  0
   10.4354   20.5545   23.3481 H   0  0  0  0  0  0  0  0  0  0  0  0
   10.7724   18.1620   22.6842 H   0  0  0  0  0  0  0  0  0  0  0  0
    6.2351   20.2791   22.2708 H   0  0  0  0  0  0  0  0  0  0  0  0
    6.7602   15.8200   22.4906 H   0  0  0  0  0  0  0  0  0  0  0  0
    6.8125   15.7911   20.6972 H   0  0  0  0  0  0  0  0  0  0  0  0
    9.0905   15.8086   22.3241 H   0  0  0  0  0  0  0  0  0  0  0  0
    9.1381   16.3468   20.6844 H   0  0  0  0  0  0  0  0  0  0  0  0
  1  2  1  0
  2  3  1  0
  3  4  1  0
  4  5  2  0
  5  6  1  0
  6  7  2  0
  7  8  1  0
  8  9  2  0
  8 10  1  0
 10 11  1  0
 11 12  1  0
  9  4  1  0
 12  7  1  0
  1 13  1  0
  1 14  1  0
  1 15  1  0
  2 16  1  0
  2 17  1  0
  3 18  1  0
  3 19  1  0
  5 20  1  0
  6 21  1  0
  9 22  1  0
 11 23  1  0
 11 24  1  0
 12 25  1  0
 12 26  1  0
M  CHG  1   1   1
M  END
>  <Score>  (3) 
-5.891

>  <Idx>  (3) 
0

$$$$
NCCc1ccc2c(c1)OCC2
     RDKit          3D

 26 27  0  0  0  0  0  0  0  0999 V2000
    4.6060   26.7500   31.9690 N   0  0  0  0  0  0  0  0  0  0  0  0
    3.9260   27.0000   30.6720 C   0  0  0  0  0  0  0  0  0  0  0  0
    4.5620   28.1960   29.9690 C   0  0  0  0  0  0  0  0  0  0  0  0
    4.8890   27.8660   28.5380 C   0  0  0  0  0  0  0  0  0  0  0  0
    5.3330   28.8750   27.6540 C   0  0  0  0  0  0  0  0  0  0  0  0
    5.6580   28.5770   26.3260 C   0  0  0  0  0  0  0  0  0  0  0  0
    5.5480   27.2660   25.9030 C   0  0  0  0  0  0  0  0  0  0  0  0
    5.1180   26.2760   26.7690 C   0  0  0  0  0  0  0  0  0  0  0  0
    4.7770   26.5450   28.0790 C   0  0  0  0  0  0  0  0  0  0  0  0
    5.0470   25.0350   26.1980 O   0  0  0  0  0  0  0  0  0  0  0  0
    5.7270   25.1980   24.9290 C   0  0  0  0  0  0  0  0  0  0  0  0
    5.7530   26.6830   24.5590 C   0  0  0  0  0  0  0  0  0  0  0  0
    4.5180   27.5660   32.5900 H   0  0  0  0  0  0  0  0  0  0  0  0
    4.2020   25.9440   32.4640 H   0  0  0  0  0  0  0  0  0  0  0  0
    5.6120   26.5710   31.8430 H   0  0  0  0  0  0  0  0  0  0  0  0
    4.0215   26.1095   30.0334 H   0  0  0  0  0  0  0  0  0  0  0  0
    2.8633   27.2147   30.8579 H   0  0  0  0  0  0  0  0  0  0  0  0
    3.8599   29.0425   29.9920 H   0  0  0  0  0  0  0  0  0  0  0  0
    5.4944   28.4559   30.4916 H   0  0  0  0  0  0  0  0  0  0  0  0
    5.4245   29.9100   28.0151 H   0  0  0  0  0  0  0  0  0  0  0  0
    5.9925   29.3661   25.6364 H   0  0  0  0  0  0  0  0  0  0  0  0
    4.4263   25.7439   28.7463 H   0  0  0  0  0  0  0  0  0  0  0  0
    6.7572   24.8216   25.0126 H   0  0  0  0  0  0  0  0  0  0  0  0
    5.1956   24.6322   24.1496 H   0  0  0  0  0  0  0  0  0  0  0  0
    6.7180   26.9818   24.1237 H   0  0  0  0  0  0  0  0  0  0  0  0
    5.0231   26.9909   23.7959 H   0  0  0  0  0  0  0  0  0  0  0  0
  1  2  1  0
  2  3  1  0
  3  4  1  0
  4  5  2  0
  5  6  1  0
  6  7  2  0
  7  8  1  0
  8  9  2  0
  8 10  1  0
 10 11  1  0
 11 12  1  0
  9  4  1  0
 12  7  1  0
  1 13  1  0
  1 14  1  0
  1 15  1  0
  2 16  1  0
  2 17  1  0
  3 18  1  0
  3 19  1  0
  5 20  1  0
  6 21  1  0
  9 22  1  0
 11 23  1  0
 11 24  1  0
 12 25  1  0
 12 26  1  0
M  CHG  1   1   1
M  END
>  <Score>  (4) 
-5.881

>  <Idx>  (4) 
0

$$$$
NCCc1ccc2c(c1)OCC2
     RDKit          3D

 26 27  0  0  0  0  0  0  0  0999 V2000
    7.9490   25.8230   23.2110 N   0  0  0  0  0  0  0  0  0  0  0  0
    6.9620   26.0670   24.2950 C   0  0  0  0  0  0  0  0  0  0  0  0
    7.6860   26.3200   25.6150 C   0  0  0  0  0  0  0  0  0  0  0  0
    6.7780   27.0030   26.6020 C   0  0  0  0  0  0  0  0  0  0  0  0
    6.1330   28.2130   26.2630 C   0  0  0  0  0  0  0  0  0  0  0  0
    5.2730   28.8480   27.1650 C   0  0  0  0  0  0  0  0  0  0  0  0
    5.0570   28.2530   28.3930 C   0  0  0  0  0  0  0  0  0  0  0  0
    5.6840   27.0650   28.7250 C   0  0  0  0  0  0  0  0  0  0  0  0
    6.5480   26.4250   27.8600 C   0  0  0  0  0  0  0  0  0  0  0  0
    5.3810   26.6100   29.9800 O   0  0  0  0  0  0  0  0  0  0  0  0
    4.2720   27.4480   30.3920 C   0  0  0  0  0  0  0  0  0  0  0  0
    4.2670   28.7260   29.5510 C   0  0  0  0  0  0  0  0  0  0  0  0
    8.4720   24.9540   23.3830 H   0  0  0  0  0  0  0  0  0  0  0  0
    7.4940   25.7300   22.2930 H   0  0  0  0  0  0  0  0  0  0  0  0
    8.6380   26.5850   23.1460 H   0  0  0  0  0  0  0  0  0  0  0  0
    6.3515   26.9459   24.0404 H   0  0  0  0  0  0  0  0  0  0  0  0
    6.3172   25.1822   24.4013 H   0  0  0  0  0  0  0  0  0  0  0  0
    8.0164   25.3584   26.0348 H   0  0  0  0  0  0  0  0  0  0  0  0
    8.5508   26.9721   25.4227 H   0  0  0  0  0  0  0  0  0  0  0  0
    6.3097   28.6627   25.2748 H   0  0  0  0  0  0  0  0  0  0  0  0
    4.7814   29.7966   26.9034 H   0  0  0  0  0  0  0  0  0  0  0  0
    7.0435   25.4864   28.1490 H   0  0  0  0  0  0  0  0  0  0  0  0
    3.3264   26.9061   30.2432 H   0  0  0  0  0  0  0  0  0  0  0  0
    4.3795   27.7063   31.4558 H   0  0  0  0  0  0  0  0  0  0  0  0
    3.2485   29.0230   29.2603 H   0  0  0  0  0  0  0  0  0  0  0  0
    4.6603   29.6216   30.0542 H   0  0  0  0  0  0  0  0  0  0  0  0
  1  2  1  0
  2  3  1  0
  3  4  1  0
  4  5  2  0
  5  6  1  0
  6  7  2  0
  7  8  1  0
  8  9  2  0
  8 10  1  0
 10 11  1  0
 11 12  1  0
  9  4  1  0
 12  7  1  0
  1 13  1  0
  1 14  1  0
  1 15  1  0
  2 16  1  0
  2 17  1  0
  3 18  1  0
  3 19  1  0
  5 20  1  0
  6 21  1  0
  9 22  1  0
 11 23  1  0
 11 24  1  0
 12 25  1  0
 12 26  1  0
M  CHG  1   1   1
M  END
>  <Score>  (5) 
-5.841

>  <Idx>  (5) 
0

$$$$
