CCc1cc(C)c(OC)c(C(=O)NC[C@@H]2CCC[N@H+]2CC)c1O
     RDKit          3D

 52 53  0  0  0  0  0  0  0  0999 V2000
    7.1010   16.3600   22.9050 C   0  0  0  0  0  0  0  0  0  0  0  0
    7.5960   17.1280   21.6880 C   0  0  0  0  0  0  0  0  0  0  0  0
    8.5360   18.2480   22.0720 C   0  0  0  0  0  0  0  0  0  0  0  0
    9.9160   18.0030   22.1120 C   0  0  0  0  0  0  0  0  0  0  0  0
   10.8280   19.0130   22.4520 C   0  0  0  0  0  0  0  0  0  0  0  0
   12.2960   18.6900   22.4740 C   0  0  0  0  0  0  0  0  0  0  0  0
   10.3340   20.2850   22.7940 C   0  0  0  0  0  0  0  0  0  0  0  0
   11.2260   21.2590   23.1810 O   0  0  0  0  0  0  0  0  0  0  0  0
   11.4190   21.2090   24.6020 C   0  0  0  0  0  0  0  0  0  0  0  0
    8.9610   20.5780   22.6890 C   0  0  0  0  0  0  0  0  0  0  0  0
    8.4130   21.9520   22.8880 C   0  0  0  0  0  0  0  0  0  0  0  0
    8.9660   22.9290   22.3810 O   0  0  0  0  0  0  0  0  0  0  0  0
    7.3130   22.1050   23.7050 N   0  0  0  0  0  0  0  0  0  0  0  0
    6.7060   23.4030   23.9060 C   0  0  0  0  0  0  0  0  0  0  0  0
    6.5470   23.7600   25.3990 C   0  0  2  0  0  0  0  0  0  0  0  0
    5.7550   25.0390   25.6360 C   0  0  0  0  0  0  0  0  0  0  0  0
    6.1420   25.4010   27.0550 C   0  0  0  0  0  0  0  0  0  0  0  0
    7.6350   25.1320   27.1140 C   0  0  0  0  0  0  0  0  0  0  0  0
    7.8950   24.0660   26.0600 N   0  0  1  0  0  0  0  0  0  0  0  0
    8.5740   22.8170   26.5770 C   0  0  0  0  0  0  0  0  0  0  0  0
    8.8960   22.9770   28.0520 C   0  0  0  0  0  0  0  0  0  0  0  0
    8.0700   19.5400   22.3540 C   0  0  0  0  0  0  0  0  0  0  0  0
    6.7120   19.7370   22.2730 O   0  0  0  0  0  0  0  0  0  0  0  0
    7.4310   16.8721   23.8209 H   0  0  0  0  0  0  0  0  0  0  0  0
    6.0022   16.3130   22.8869 H   0  0  0  0  0  0  0  0  0  0  0  0
    7.5120   15.3398   22.8869 H   0  0  0  0  0  0  0  0  0  0  0  0
    8.1254   16.4327   21.0199 H   0  0  0  0  0  0  0  0  0  0  0  0
    6.7232   17.5722   21.1871 H   0  0  0  0  0  0  0  0  0  0  0  0
   10.2914   16.9974   21.8716 H   0  0  0  0  0  0  0  0  0  0  0  0
   12.6392   18.6145   23.5163 H   0  0  0  0  0  0  0  0  0  0  0  0
   12.4685   17.7324   21.9609 H   0  0  0  0  0  0  0  0  0  0  0  0
   12.8545   19.4867   21.9609 H   0  0  0  0  0  0  0  0  0  0  0  0
   10.4741   21.4538   25.1092 H   0  0  0  0  0  0  0  0  0  0  0  0
   11.7402   20.1980   24.8931 H   0  0  0  0  0  0  0  0  0  0  0  0
   12.1907   21.9369   24.8931 H   0  0  0  0  0  0  0  0  0  0  0  0
    6.8600   21.2620   24.0580 H   0  0  0  0  0  0  0  0  0  0  0  0
    7.3381   24.1653   23.4270 H   0  0  0  0  0  0  0  0  0  0  0  0
    5.7000   23.3722   23.4622 H   0  0  0  0  0  0  0  0  0  0  0  0
    6.0410   22.8763   25.8149 H   0  0  0  0  0  0  0  0  0  0  0  0
    6.0514   25.8277   24.9289 H   0  0  0  0  0  0  0  0  0  0  0  0
    4.6711   24.9185   25.4925 H   0  0  0  0  0  0  0  0  0  0  0  0
    5.9281   26.4604   27.2595 H   0  0  0  0  0  0  0  0  0  0  0  0
    5.5801   24.8249   27.8050 H   0  0  0  0  0  0  0  0  0  0  0  0
    8.2004   26.0470   26.8837 H   0  0  0  0  0  0  0  0  0  0  0  0
    7.9525   24.8040   28.1148 H   0  0  0  0  0  0  0  0  0  0  0  0
    8.5090   24.4810   25.3470 H   0  0  0  0  0  0  0  0  0  0  0  0
    7.9043   21.9550   26.4413 H   0  0  0  0  0  0  0  0  0  0  0  0
    9.5073   22.6543   26.0181 H   0  0  0  0  0  0  0  0  0  0  0  0
    8.0714   22.5673   28.6539 H   0  0  0  0  0  0  0  0  0  0  0  0
    9.8246   22.4355   28.2854 H   0  0  0  0  0  0  0  0  0  0  0  0
    9.0253   24.0441   28.2854 H   0  0  0  0  0  0  0  0  0  0  0  0
    6.4910   20.0210   21.3610 H   0  0  0  0  0  0  0  0  0  0  0  0
  1  2  1  0
  2  3  1  0
  3  4  2  0
  4  5  1  0
  5  6  1  0
  5  7  2  0
  7  8  1  0
  8  9  1  0
  7 10  1  0
 10 11  1  0
 11 12  2  0
 11 13  1  0
 13 14  1  0
 14 15  1  0
 15 16  1  0
 16 17  1  0
 17 18  1  0
 18 19  1  0
 19 20  1  0
 20 21  1  0
 10 22  2  0
 22 23  1  0
 22  3  1  0
 19 15  1  0
  1 24  1  0
  1 25  1  0
  1 26  1  0
  2 27  1  0
  2 28  1  0
  4 29  1  0
  6 30  1  0
  6 31  1  0
  6 32  1  0
  9 33  1  0
  9 34  1  0
  9 35  1  0
 13 36  1  0
 14 37  1  0
 14 38  1  0
 15 39  1  1
 16 40  1  0
 16 41  1  0
 17 42  1  0
 17 43  1  0
 18 44  1  0
 18 45  1  0
 19 46  1  6
 20 47  1  0
 20 48  1  0
 21 49  1  0
 21 50  1  0
 21 51  1  0
 23 52  1  0
M  CHG  1  19   1
M  END
>  <Score>  (1) 
-8.451

>  <Idx>  (1) 
0

$$$$
CCc1cc(C)c(OC)c(C(=O)NC[C@@H]2CCC[N@H+]2CC)c1O
     RDKit          3D

 52 53  0  0  0  0  0  0  0  0999 V2000
    7.1700   16.2830   22.8790 C   0  0  0  0  0  0  0  0  0  0  0  0
    7.6690   17.0890   21.6880 C   0  0  0  0  0  0  0  0  0  0  0  0
    8.5200   18.2620   22.1170 C   0  0  0  0  0  0  0  0  0  0  0  0
    9.9050   18.0930   22.2550 C   0  0  0  0  0  0  0  0  0  0  0  0
   10.7360   19.1540   22.6400 C   0  0  0  0  0  0  0  0  0  0  0  0
   12.2150   18.9110   22.7660 C   0  0  0  0  0  0  0  0  0  0  0  0
   10.1530   20.4020   22.9270 C   0  0  0  0  0  0  0  0  0  0  0  0
   10.9640   21.4280   23.3580 O   0  0  0  0  0  0  0  0  0  0  0  0
   11.0910   21.3830   24.7870 C   0  0  0  0  0  0  0  0  0  0  0  0
    8.7770   20.6190   22.7240 C   0  0  0  0  0  0  0  0  0  0  0  0
    8.1450   21.9640   22.8640 C   0  0  0  0  0  0  0  0  0  0  0  0
    8.6730   22.9620   22.3700 O   0  0  0  0  0  0  0  0  0  0  0  0
    6.9910   22.0690   23.6120 N   0  0  0  0  0  0  0  0  0  0  0  0
    6.3040   23.3350   23.7510 C   0  0  0  0  0  0  0  0  0  0  0  0
    6.9780   24.2670   24.7790 C   0  0  2  0  0  0  0  0  0  0  0  0
    7.3610   23.5650   26.0750 C   0  0  0  0  0  0  0  0  0  0  0  0
    7.5400   24.7250   27.0320 C   0  0  0  0  0  0  0  0  0  0  0  0
    6.3820   25.6540   26.7100 C   0  0  0  0  0  0  0  0  0  0  0  0
    6.0300   25.3710   25.2570 N   0  0  1  0  0  0  0  0  0  0  0  0
    6.0610   26.5820   24.3510 C   0  0  0  0  0  0  0  0  0  0  0  0
    4.9220   27.5210   24.7040 C   0  0  0  0  0  0  0  0  0  0  0  0
    7.9670   19.5300   22.3460 C   0  0  0  0  0  0  0  0  0  0  0  0
    6.6100   19.6520   22.1690 O   0  0  0  0  0  0  0  0  0  0  0  0
    7.4769   16.7788   23.8117 H   0  0  0  0  0  0  0  0  0  0  0  0
    6.0726   16.2167   22.8430 H   0  0  0  0  0  0  0  0  0  0  0  0
    7.5999   15.2711   22.8430 H   0  0  0  0  0  0  0  0  0  0  0  0
    8.2690   16.4324   21.0407 H   0  0  0  0  0  0  0  0  0  0  0  0
    6.7927   17.4821   21.1517 H   0  0  0  0  0  0  0  0  0  0  0  0
   10.3491   17.1063   22.0568 H   0  0  0  0  0  0  0  0  0  0  0  0
   12.4898   18.8658   23.8302 H   0  0  0  0  0  0  0  0  0  0  0  0
   12.4728   17.9585   22.2800 H   0  0  0  0  0  0  0  0  0  0  0  0
   12.7640   19.7310   22.2800 H   0  0  0  0  0  0  0  0  0  0  0  0
   10.1502   21.7163   25.2494 H   0  0  0  0  0  0  0  0  0  0  0  0
   11.3101   20.3525   25.1034 H   0  0  0  0  0  0  0  0  0  0  0  0
   11.9100   22.0457   25.1034 H   0  0  0  0  0  0  0  0  0  0  0  0
    6.5640   21.2080   23.9540 H   0  0  0  0  0  0  0  0  0  0  0  0
    6.2928   23.8388   22.7732 H   0  0  0  0  0  0  0  0  0  0  0  0
    5.2862   23.1236   24.1107 H   0  0  0  0  0  0  0  0  0  0  0  0
    7.8574   24.6435   24.2359 H   0  0  0  0  0  0  0  0  0  0  0  0
    6.5613   22.8897   26.4133 H   0  0  0  0  0  0  0  0  0  0  0  0
    8.2537   22.9289   25.9833 H   0  0  0  0  0  0  0  0  0  0  0  0
    7.4866   24.3818   28.0757 H   0  0  0  0  0  0  0  0  0  0  0  0
    8.5181   25.2160   26.9215 H   0  0  0  0  0  0  0  0  0  0  0  0
    5.5232   25.4394   27.3630 H   0  0  0  0  0  0  0  0  0  0  0  0
    6.6476   26.7096   26.8688 H   0  0  0  0  0  0  0  0  0  0  0  0
    5.0730   24.9950   25.2400 H   0  0  0  0  0  0  0  0  0  0  0  0
    7.0192   27.1074   24.4772 H   0  0  0  0  0  0  0  0  0  0  0  0
    5.9505   26.2555   23.3064 H   0  0  0  0  0  0  0  0  0  0  0  0
    4.8330   27.5944   25.7979 H   0  0  0  0  0  0  0  0  0  0  0  0
    5.1251   28.5176   24.2850 H   0  0  0  0  0  0  0  0  0  0  0  0
    3.9825   27.1316   24.2850 H   0  0  0  0  0  0  0  0  0  0  0  0
    6.3880   20.6050   22.1000 H   0  0  0  0  0  0  0  0  0  0  0  0
  1  2  1  0
  2  3  1  0
  3  4  2  0
  4  5  1  0
  5  6  1  0
  5  7  2  0
  7  8  1  0
  8  9  1  0
  7 10  1  0
 10 11  1  0
 11 12  2  0
 11 13  1  0
 13 14  1  0
 14 15  1  0
 15 16  1  0
 16 17  1  0
 17 18  1  0
 18 19  1  0
 19 20  1  0
 20 21  1  0
 10 22  2  0
 22 23  1  0
 22  3  1  0
 19 15  1  0
  1 24  1  0
  1 25  1  0
  1 26  1  0
  2 27  1  0
  2 28  1  0
  4 29  1  0
  6 30  1  0
  6 31  1  0
  6 32  1  0
  9 33  1  0
  9 34  1  0
  9 35  1  0
 13 36  1  0
 14 37  1  0
 14 38  1  0
 15 39  1  6
 16 40  1  0
 16 41  1  0
 17 42  1  0
 17 43  1  0
 18 44  1  0
 18 45  1  0
 19 46  1  1
 20 47  1  0
 20 48  1  0
 21 49  1  0
 21 50  1  0
 21 51  1  0
 23 52  1  0
M  CHG  1  19   1
M  END
>  <Score>  (2) 
-8.132

>  <Idx>  (2) 
0

$$$$
CCc1cc(C)c(OC)c(C(=O)NC[C@@H]2CCC[N@H+]2CC)c1O
     RDKit          3D

 52 53  0  0  0  0  0  0  0  0999 V2000
    9.4520   22.0240   26.5690 C   0  0  0  0  0  0  0  0  0  0  0  0
    8.6390   23.1250   27.2350 C   0  0  0  0  0  0  0  0  0  0  0  0
    7.6770   23.7780   26.2690 C   0  0  0  0  0  0  0  0  0  0  0  0
    7.3350   23.1130   25.0830 C   0  0  0  0  0  0  0  0  0  0  0  0
    6.4390   23.6750   24.1620 C   0  0  0  0  0  0  0  0  0  0  0  0
    6.1100   22.9110   22.9100 C   0  0  0  0  0  0  0  0  0  0  0  0
    5.9050   24.9490   24.4270 C   0  0  0  0  0  0  0  0  0  0  0  0
    5.0690   25.5230   23.4960 O   0  0  0  0  0  0  0  0  0  0  0  0
    5.8320   26.3210   22.5800 C   0  0  0  0  0  0  0  0  0  0  0  0
    6.1720   25.6040   25.6430 C   0  0  0  0  0  0  0  0  0  0  0  0
    5.5040   26.8810   26.0340 C   0  0  0  0  0  0  0  0  0  0  0  0
    6.1690   27.8580   26.3820 O   0  0  0  0  0  0  0  0  0  0  0  0
    4.1260   26.9180   26.0550 N   0  0  0  0  0  0  0  0  0  0  0  0
    3.4160   28.1360   26.3820 C   0  0  0  0  0  0  0  0  0  0  0  0
    2.7770   28.0920   27.7860 C   0  0  2  0  0  0  0  0  0  0  0  0
    1.2780   28.3600   27.7790 C   0  0  0  0  0  0  0  0  0  0  0  0
    1.0070   28.7240   29.2240 C   0  0  0  0  0  0  0  0  0  0  0  0
    2.1740   29.6170   29.6070 C   0  0  0  0  0  0  0  0  0  0  0  0
    3.3170   29.2020   28.6940 N   0  0  1  0  0  0  0  0  0  0  0  0
    4.5820   28.7860   29.4120 C   0  0  0  0  0  0  0  0  0  0  0  0
    4.4870   27.3280   29.8230 C   0  0  0  0  0  0  0  0  0  0  0  0
    7.0840   25.0190   26.5440 C   0  0  0  0  0  0  0  0  0  0  0  0
    7.4270   25.6170   27.7320 O   0  0  0  0  0  0  0  0  0  0  0  0
    9.9174   21.3937   27.3411 H   0  0  0  0  0  0  0  0  0  0  0  0
    8.7906   21.4078   25.9423 H   0  0  0  0  0  0  0  0  0  0  0  0
   10.2356   22.4748   25.9423 H   0  0  0  0  0  0  0  0  0  0  0  0
    8.0666   22.6903   28.0677 H   0  0  0  0  0  0  0  0  0  0  0  0
    9.3376   23.8953   27.5936 H   0  0  0  0  0  0  0  0  0  0  0  0
    7.7790   22.1293   24.8703 H   0  0  0  0  0  0  0  0  0  0  0  0
    5.6881   21.9313   23.1785 H   0  0  0  0  0  0  0  0  0  0  0  0
    5.3757   23.4766   22.3176 H   0  0  0  0  0  0  0  0  0  0  0  0
    7.0255   22.7661   22.3176 H   0  0  0  0  0  0  0  0  0  0  0  0
    6.4846   27.0036   23.1440 H   0  0  0  0  0  0  0  0  0  0  0  0
    6.4474   25.6650   21.9468 H   0  0  0  0  0  0  0  0  0  0  0  0
    5.1490   26.9063   21.9468 H   0  0  0  0  0  0  0  0  0  0  0  0
    3.6210   26.1020   25.7070 H   0  0  0  0  0  0  0  0  0  0  0  0
    4.1235   28.9774   26.3432 H   0  0  0  0  0  0  0  0  0  0  0  0
    2.6036   28.2547   25.6499 H   0  0  0  0  0  0  0  0  0  0  0  0
    3.0151   27.0773   28.1376 H   0  0  0  0  0  0  0  0  0  0  0  0
    1.0254   29.1917   27.1048 H   0  0  0  0  0  0  0  0  0  0  0  0
    0.6806   27.5089   27.4203 H   0  0  0  0  0  0  0  0  0  0  0  0
    0.0540   29.2653   29.3181 H   0  0  0  0  0  0  0  0  0  0  0  0
    0.9217   27.8399   29.8729 H   0  0  0  0  0  0  0  0  0  0  0  0
    1.9180   30.6747   29.4466 H   0  0  0  0  0  0  0  0  0  0  0  0
    2.4395   29.5100   30.6691 H   0  0  0  0  0  0  0  0  0  0  0  0
    3.5480   30.0100   28.1020 H   0  0  0  0  0  0  0  0  0  0  0  0
    5.4433   28.9204   28.7411 H   0  0  0  0  0  0  0  0  0  0  0  0
    4.7098   29.4079   30.3103 H   0  0  0  0  0  0  0  0  0  0  0  0
    4.4823   27.2560   30.9206 H   0  0  0  0  0  0  0  0  0  0  0  0
    3.5587   26.8941   29.4231 H   0  0  0  0  0  0  0  0  0  0  0  0
    5.3512   26.7773   29.4231 H   0  0  0  0  0  0  0  0  0  0  0  0
    6.6080   25.8100   28.2340 H   0  0  0  0  0  0  0  0  0  0  0  0
  1  2  1  0
  2  3  1  0
  3  4  2  0
  4  5  1  0
  5  6  1  0
  5  7  2  0
  7  8  1  0
  8  9  1  0
  7 10  1  0
 10 11  1  0
 11 12  2  0
 11 13  1  0
 13 14  1  0
 14 15  1  0
 15 16  1  0
 16 17  1  0
 17 18  1  0
 18 19  1  0
 19 20  1  0
 20 21  1  0
 10 22  2  0
 22 23  1  0
 22  3  1  0
 19 15  1  0
  1 24  1  0
  1 25  1  0
  1 26  1  0
  2 27  1  0
  2 28  1  0
  4 29  1  0
  6 30  1  0
  6 31  1  0
  6 32  1  0
  9 33  1  0
  9 34  1  0
  9 35  1  0
 13 36  1  0
 14 37  1  0
 14 38  1  0
 15 39  1  1
 16 40  1  0
 16 41  1  0
 17 42  1  0
 17 43  1  0
 18 44  1  0
 18 45  1  0
 19 46  1  6
 20 47  1  0
 20 48  1  0
 21 49  1  0
 21 50  1  0
 21 51  1  0
 23 52  1  0
M  CHG  1  19   1
M  END
>  <Score>  (3) 
-7.572

>  <Idx>  (3) 
0

$$$$
CCc1cc(C)c(OC)c(C(=O)NC[C@@H]2CCC[N@H+]2CC)c1O
     RDKit          3D

 52 53  0  0  0  0  0  0  0  0999 V2000
    5.8860   26.7440   29.0500 C   0  0  0  0  0  0  0  0  0  0  0  0
    6.9510   26.1080   28.1680 C   0  0  0  0  0  0  0  0  0  0  0  0
    6.4250   25.7940   26.7860 C   0  0  0  0  0  0  0  0  0  0  0  0
    5.1550   26.2570   26.4130 C   0  0  0  0  0  0  0  0  0  0  0  0
    4.6290   26.0000   25.1380 C   0  0  0  0  0  0  0  0  0  0  0  0
    3.2630   26.5270   24.7960 C   0  0  0  0  0  0  0  0  0  0  0  0
    5.3860   25.2310   24.2360 C   0  0  0  0  0  0  0  0  0  0  0  0
    4.8450   24.9340   23.0050 O   0  0  0  0  0  0  0  0  0  0  0  0
    4.4590   23.5520   22.9610 C   0  0  0  0  0  0  0  0  0  0  0  0
    6.6920   24.8200   24.5580 C   0  0  0  0  0  0  0  0  0  0  0  0
    7.5880   24.1400   23.5750 C   0  0  0  0  0  0  0  0  0  0  0  0
    7.9350   24.7110   22.5400 O   0  0  0  0  0  0  0  0  0  0  0  0
    7.9630   22.8370   23.8250 N   0  0  0  0  0  0  0  0  0  0  0  0
    8.8630   22.1340   22.9360 C   0  0  0  0  0  0  0  0  0  0  0  0
    9.4170   20.8350   23.5560 C   0  0  2  0  0  0  0  0  0  0  0  0
   10.2580   21.0690   24.8050 C   0  0  0  0  0  0  0  0  0  0  0  0
   11.0320   19.7730   24.9200 C   0  0  0  0  0  0  0  0  0  0  0  0
   11.4420   19.4550   23.4930 C   0  0  0  0  0  0  0  0  0  0  0  0
   10.3960   20.1250   22.6150 N   0  0  1  0  0  0  0  0  0  0  0  0
    9.6890   19.1960   21.6520 C   0  0  0  0  0  0  0  0  0  0  0  0
    8.8420   18.2000   22.4240 C   0  0  0  0  0  0  0  0  0  0  0  0
    7.1890   25.0840   25.8490 C   0  0  0  0  0  0  0  0  0  0  0  0
    8.4380   24.6780   26.2520 O   0  0  0  0  0  0  0  0  0  0  0  0
    6.1454   26.5891   30.1077 H   0  0  0  0  0  0  0  0  0  0  0  0
    5.8319   27.8224   28.8399 H   0  0  0  0  0  0  0  0  0  0  0  0
    4.9110   26.2802   28.8399 H   0  0  0  0  0  0  0  0  0  0  0  0
    7.7985   26.8032   28.0764 H   0  0  0  0  0  0  0  0  0  0  0  0
    7.2621   25.1629   28.6371 H   0  0  0  0  0  0  0  0  0  0  0  0
    4.5586   26.8338   27.1352 H   0  0  0  0  0  0  0  0  0  0  0  0
    2.7098   26.7404   25.7225 H   0  0  0  0  0  0  0  0  0  0  0  0
    3.3632   27.4510   24.2076 H   0  0  0  0  0  0  0  0  0  0  0  0
    2.7166   25.7751   24.2076 H   0  0  0  0  0  0  0  0  0  0  0  0
    4.3519   23.1684   23.9864 H   0  0  0  0  0  0  0  0  0  0  0  0
    3.4996   23.4559   22.4315 H   0  0  0  0  0  0  0  0  0  0  0  0
    5.2297   22.9727   22.4315 H   0  0  0  0  0  0  0  0  0  0  0  0
    7.6940   22.4260   24.7200 H   0  0  0  0  0  0  0  0  0  0  0  0
    8.3198   21.8801   22.0138 H   0  0  0  0  0  0  0  0  0  0  0  0
    9.7173   22.7972   22.7351 H   0  0  0  0  0  0  0  0  0  0  0  0
    8.5084   20.2533   23.7706 H   0  0  0  0  0  0  0  0  0  0  0  0
   10.9343   21.9267   24.6750 H   0  0  0  0  0  0  0  0  0  0  0  0
    9.6626   21.3073   25.6987 H   0  0  0  0  0  0  0  0  0  0  0  0
   11.9170   19.9028   25.5603 H   0  0  0  0  0  0  0  0  0  0  0  0
   10.4385   18.9674   25.3769 H   0  0  0  0  0  0  0  0  0  0  0  0
   12.4416   19.8617   23.2798 H   0  0  0  0  0  0  0  0  0  0  0  0
   11.4941   18.3710   23.3136 H   0  0  0  0  0  0  0  0  0  0  0  0
   10.8750   20.8440   22.0570 H   0  0  0  0  0  0  0  0  0  0  0  0
    9.0424   19.7851   20.9850 H   0  0  0  0  0  0  0  0  0  0  0  0
   10.4377   18.6515   21.0579 H   0  0  0  0  0  0  0  0  0  0  0  0
    8.9791   18.3612   23.5035 H   0  0  0  0  0  0  0  0  0  0  0  0
    7.7825   18.3405   22.1639 H   0  0  0  0  0  0  0  0  0  0  0  0
    9.1509   17.1768   22.1639 H   0  0  0  0  0  0  0  0  0  0  0  0
    8.8720   25.4210   26.7230 H   0  0  0  0  0  0  0  0  0  0  0  0
  1  2  1  0
  2  3  1  0
  3  4  2  0
  4  5  1  0
  5  6  1  0
  5  7  2  0
  7  8  1  0
  8  9  1  0
  7 10  1  0
 10 11  1  0
 11 12  2  0
 11 13  1  0
 13 14  1  0
 14 15  1  0
 15 16  1  0
 16 17  1  0
 17 18  1  0
 18 19  1  0
 19 20  1  0
 20 21  1  0
 10 22  2  0
 22 23  1  0
 22  3  1  0
 19 15  1  0
  1 24  1  0
  1 25  1  0
  1 26  1  0
  2 27  1  0
  2 28  1  0
  4 29  1  0
  6 30  1  0
  6 31  1  0
  6 32  1  0
  9 33  1  0
  9 34  1  0
  9 35  1  0
 13 36  1  0
 14 37  1  0
 14 38  1  0
 15 39  1  1
 16 40  1  0
 16 41  1  0
 17 42  1  0
 17 43  1  0
 18 44  1  0
 18 45  1  0
 19 46  1  6
 20 47  1  0
 20 48  1  0
 21 49  1  0
 21 50  1  0
 21 51  1  0
 23 52  1  0
M  CHG  1  19   1
M  END
>  <Score>  (4) 
-7.432

>  <Idx>  (4) 
0

$$$$
CCc1cc(C)c(OC)c(C(=O)NC[C@@H]2CCC[N@H+]2CC)c1O
     RDKit          3D

 52 53  0  0  0  0  0  0  0  0999 V2000
    0.6300   29.3010   24.1190 C   0  0  0  0  0  0  0  0  0  0  0  0
    0.5500   28.1590   25.1210 C   0  0  0  0  0  0  0  0  0  0  0  0
    1.7530   28.1280   26.0370 C   0  0  0  0  0  0  0  0  0  0  0  0
    1.7640   28.9320   27.1850 C   0  0  0  0  0  0  0  0  0  0  0  0
    2.8520   28.9290   28.0700 C   0  0  0  0  0  0  0  0  0  0  0  0
    2.8020   29.8110   29.2870 C   0  0  0  0  0  0  0  0  0  0  0  0
    3.9660   28.1250   27.7700 C   0  0  0  0  0  0  0  0  0  0  0  0
    5.0570   28.1650   28.6100 O   0  0  0  0  0  0  0  0  0  0  0  0
    4.9320   27.1540   29.6210 C   0  0  0  0  0  0  0  0  0  0  0  0
    3.9500   27.2530   26.6660 C   0  0  0  0  0  0  0  0  0  0  0  0
    5.0420   26.2700   26.4000 C   0  0  0  0  0  0  0  0  0  0  0  0
    4.8660   25.0660   26.5940 O   0  0  0  0  0  0  0  0  0  0  0  0
    6.2690   26.7500   25.9930 N   0  0  0  0  0  0  0  0  0  0  0  0
    7.3570   25.8490   25.6770 C   0  0  0  0  0  0  0  0  0  0  0  0
    7.2740   25.2990   24.2380 C   0  0  2  0  0  0  0  0  0  0  0  0
    6.5260   26.2160   23.2800 C   0  0  0  0  0  0  0  0  0  0  0  0
    6.1840   25.2810   22.1380 C   0  0  0  0  0  0  0  0  0  0  0  0
    5.7510   23.9980   22.8250 C   0  0  0  0  0  0  0  0  0  0  0  0
    6.4630   24.0000   24.1690 N   0  0  1  0  0  0  0  0  0  0  0  0
    7.3170   22.7800   24.4360 C   0  0  0  0  0  0  0  0  0  0  0  0
    7.7770   22.1750   23.1220 C   0  0  0  0  0  0  0  0  0  0  0  0
    2.8470   27.2860   25.7910 C   0  0  0  0  0  0  0  0  0  0  0  0
    2.7760   26.4950   24.6690 O   0  0  0  0  0  0  0  0  0  0  0  0
    0.6970   30.2576   24.6579 H   0  0  0  0  0  0  0  0  0  0  0  0
    1.5214   29.1728   23.4873 H   0  0  0  0  0  0  0  0  0  0  0  0
   -0.2705   29.2983   23.4873 H   0  0  0  0  0  0  0  0  0  0  0  0
   -0.3577   28.2829   25.7299 H   0  0  0  0  0  0  0  0  0  0  0  0
    0.5243   27.2135   24.5594 H   0  0  0  0  0  0  0  0  0  0  0  0
    0.9003   29.5796   27.3965 H   0  0  0  0  0  0  0  0  0  0  0  0
    2.8373   29.1881   30.1930 H   0  0  0  0  0  0  0  0  0  0  0  0
    3.6628   30.4959   29.2791 H   0  0  0  0  0  0  0  0  0  0  0  0
    1.8694   30.3942   29.2791 H   0  0  0  0  0  0  0  0  0  0  0  0
    4.9897   27.6207   30.6154 H   0  0  0  0  0  0  0  0  0  0  0  0
    3.9639   26.6434   29.5112 H   0  0  0  0  0  0  0  0  0  0  0  0
    5.7466   26.4230   29.5112 H   0  0  0  0  0  0  0  0  0  0  0  0
    6.3490   27.7480   25.7950 H   0  0  0  0  0  0  0  0  0  0  0  0
    8.3075   26.3904   25.7928 H   0  0  0  0  0  0  0  0  0  0  0  0
    7.2907   24.9931   26.3648 H   0  0  0  0  0  0  0  0  0  0  0  0
    8.3301   25.1773   23.9555 H   0  0  0  0  0  0  0  0  0  0  0  0
    5.6172   26.6236   23.7468 H   0  0  0  0  0  0  0  0  0  0  0  0
    7.1075   27.0964   22.9691 H   0  0  0  0  0  0  0  0  0  0  0  0
    5.3661   25.6925   21.5283 H   0  0  0  0  0  0  0  0  0  0  0  0
    7.0296   25.1270   21.4515 H   0  0  0  0  0  0  0  0  0  0  0  0
    4.6603   23.9867   22.9672 H   0  0  0  0  0  0  0  0  0  0  0  0
    6.0044   23.1089   22.2289 H   0  0  0  0  0  0  0  0  0  0  0  0
    5.7420   24.0400   24.9010 H   0  0  0  0  0  0  0  0  0  0  0  0
    8.1952   23.0723   25.0304 H   0  0  0  0  0  0  0  0  0  0  0  0
    6.7245   22.0368   24.9897 H   0  0  0  0  0  0  0  0  0  0  0  0
    8.4315   21.3142   23.3239 H   0  0  0  0  0  0  0  0  0  0  0  0
    6.9015   21.8426   22.5450 H   0  0  0  0  0  0  0  0  0  0  0  0
    8.3314   22.9298   22.5450 H   0  0  0  0  0  0  0  0  0  0  0  0
    1.8350   26.2820   24.4950 H   0  0  0  0  0  0  0  0  0  0  0  0
  1  2  1  0
  2  3  1  0
  3  4  2  0
  4  5  1  0
  5  6  1  0
  5  7  2  0
  7  8  1  0
  8  9  1  0
  7 10  1  0
 10 11  1  0
 11 12  2  0
 11 13  1  0
 13 14  1  0
 14 15  1  0
 15 16  1  0
 16 17  1  0
 17 18  1  0
 18 19  1  0
 19 20  1  0
 20 21  1  0
 10 22  2  0
 22 23  1  0
 22  3  1  0
 19 15  1  0
  1 24  1  0
  1 25  1  0
  1 26  1  0
  2 27  1  0
  2 28  1  0
  4 29  1  0
  6 30  1  0
  6 31  1  0
  6 32  1  0
  9 33  1  0
  9 34  1  0
  9 35  1  0
 13 36  1  0
 14 37  1  0
 14 38  1  0
 15 39  1  6
 16 40  1  0
 16 41  1  0
 17 42  1  0
 17 43  1  0
 18 44  1  0
 18 45  1  0
 19 46  1  1
 20 47  1  0
 20 48  1  0
 21 49  1  0
 21 50  1  0
 21 51  1  0
 23 52  1  0
M  CHG  1  19   1
M  END
>  <Score>  (5) 
-7.19

>  <Idx>  (5) 
0

$$$$
